
Circuit: laboratório 1

Doing analysis at TEMP = 27.000000 and TNOM = 27.000000


No. of Data Rows : 1
********************************************
Operating point
********************************************
op_TAB
@gib[i] = -2.60149e-04
@id[current] = 1.012649e-03
@rr1[i] = 2.482093e-04
@rr2[i] = -2.60149e-04
@rr3[i] = -1.19393e-05
@rr4[i] = 1.192184e-03
@rr5[i] = 1.272797e-03
@rr6[i] = 9.439751e-04
@rr7[i] = 9.439751e-04
v(1) = 7.053027e+00
v(2) = 6.795298e+00
v(3) = 6.264646e+00
v(4) = 1.949470e+00
v(5) = 6.831425e+00
v(6) = 1.080049e+01
v(7) = -9.54723e-01
v(9) = 0.000000e+00
hvc#branch = 6.867375e-05
va#branch = -2.48209e-04
vdu#branch = 9.439751e-04
op_END
ngspice-31 done
